LAMMPS (29 Oct 2020)
####################################################
## RHEO wall-debug branch, 3/28/2022              ##
## Run poiseuille inlet                           ##
####################################################

dimension          3
units              lj
atom_style         rheo
boundary           f f f
comm_modify        vel yes
newton on

############################################
## Re Parameters ##
############################################

############################################
## Particle Lattice/Resolution Parameters ##
############################################

variable           nb equal 1    #number of basis atoms depends on lattice
variable           n equal 1/(1^3)
variable           del equal 1
variable           hd equal 3.0
variable           h3 equal 3*1

############################################
##              Create box                ##
############################################

# read_data            ../../nozzle_data_H7p5.data
region             box block 0 200 0 100 0 100 units box
create_box         3 box
Created orthogonal box = (0.0000000 0.0000000 0.0000000) to (200.00000 100.00000 100.00000)
lattice              sc 1
Lattice spacing in x,y,z = 1.0000000 1.0000000 1.0000000

region             plate block 190 195 EDGE EDGE EDGE EDGE units box
create_atoms       2 region plate
Created 60000 atoms
# region               hopper cylinder x 8.5 8.5 6.25 4.5 8 units box
# create_atoms         1 region hopper

# region             nozzle_all cylinder x 8.5 8.5 6.25 1.5 18.5 units box
# group              nozzle_all dynamic all region nozzle_all every 100

variable           fext_type atom (type==1) #includes original fluid and solid inlet
group              fext_group dynamic all var fext_type
dynamic group fext_group defined

group              fluid type 1
0 atoms in group fluid
group              solid_fixed type 2
60000 atoms in group solid_fixed
group              solid_moving type 3
0 atoms in group solid_moving
group              solid union solid_fixed solid_moving
60000 atoms in group solid

variable           strip_width equal $(lx/40)
variable           strip_width equal 5
change_box         all x final $(xlo) $(xhi+v_strip_width) units box
change_box         all x final 0 $(xhi+v_strip_width) units box
change_box         all x final 0 205 units box
Changing box ...
  orthogonal box = (0.0000000 0.0000000 0.0000000) to (205.00000 100.00000 100.00000)
# Expand box to the right by a distance equal to the length inserted

# Shift atoms by same increment
displace_atoms     all move 5 0 0
Displacing atoms ...

variable           seed equal 135414
variable           dr equal 0.1*1

############################################
##         Potential parameters           ##
############################################

# variable           T_C equal 145/240 #from NIST challenge statement
# variable           T_m equal 217.5/240 #looked up online

variable           rho0 equal 1.0
variable           mp equal 1/1
variable           cs equal 1
variable           zeta equal 1
variable           D equal 1e-2 #thermal diffusivity
variable	       kappa equal 0.01*1/1
variable           eta equal 1.06

#freeze parameters
variable           cutb equal 1.5*1
variable           k equal 20*0.1*3/1/3
variable           gamma equal 10*0.1*3/1/3
variable           Dr equal 0.1*3*1

pair_style         rheo 3 artificial/visc 1 rho/damp 0.3
pair_coeff         * * 1 1
                                  #cut #cutb #k #eps #gam #t #rlim #sig #krepel(deprecated)
                                  # cut  cutb k  sig eps  gamma

############################################
##         Particle Properties            ##
############################################

mass               1 1
mass               2 1
mass               3 1

set                group all rho 1
Setting atom values ...
  60000 settings made for rho
set                group all phase 0
Setting atom values ...
  60000 settings made for phase
set                group solid_fixed phase 5
Setting atom values ...
  60000 settings made for phase
set                group solid_moving phase 5
Setting atom values ...
  0 settings made for phase

set                group all temp 1.0
Setting atom values ...
  60000 settings made for temp

velocity           all set 0 0 0

############################################
##         Integration and fixes          ##
############################################

variable           U_L equal 0.01 #should be 2x your desired speed (since sf=0.5)
variable           T_tot equal ly/(0.01/2)

#CFL criterion
variable           dt equal 0.1
timestep           0.1
# Redefine to a more "round" number
variable           fext equal 1e-5/1

fix                1 all rheo 3 Quintic 5 shift
fix                2 all rheo/viscosity constant 1.06
fix                4 fext_group addforce -1e-05 0.0 0.0
fix                5 solid_fixed setforce 0.0 0.0 0.0
# fix                6 solid_moving setforce 0.0 0.0 0.0
fix                8 all rheo/surface 3 2.5 4
fix                9 all rheo/inlet 3 data_inlet_0p5 5 $(v_strip_width/500)
fix                9 all rheo/inlet 3 data_inlet_0p5 5 0.010000000000000000208
# Args are file, width of insertion, velocity of inserted particles.
#
# Some requirements:
#  1) The width should be >= the kernel cutoff to avoid particles seeing a void
#  2) Lx/width must be an integer - inserted strips evenly divide read datafile
#  3) Lx*(dt*vx) must be an integer - strips are inserted on a discrete timestep
#  4) The y and z dimensions of the input data file need to match the box dimensions
#  5) xlo needs to be zero
# These requirements are ~fudged due to float artithmetic and can easily error
#
# In the future, I plan to generalize and remove (2) by letting strips straddle
# the PBC, (3) by alternatively requiring the strip length exceeds the kernel
# length by a buffer equal to the distance an inserted atom moves in a timestep,
# and (4)
#
# Note, fluid atoms within a region of 2x the inserted width move at a fixed v
# Solid atoms only have a buffer of 1x the inserted width (less worry with density
# evolution).
#
# Fluid atoms on the edge of the system (inserted width) have rho interpolate
# linearly from it's intial value value to 1.0 to reduce effects of seeing the void
# Shifting is also turned off
# Adhoc - can improve. Ideally we'd somehow extend valuse of atoms entering
# the buffer to the rest of the atoms in a buffer, but need to bin horizontally...
# Or create ghost atoms to mirror...

variable           skin equal 0.2*3
neighbor           0.6 bin
neigh_modify       one 5000

############################################
##            Output and run              ##
############################################

compute            den all property/atom rho
compute            phase all property/atom phase
compute            surf all property/atom surface
# compute            temp all property/atom temp
# compute            nbond all property/atom i_rheo_freeze_nbond
compute            eta all property/atom viscosity
# compute            nbond all property/atom i_rheo_react_nbond

dump               1 all custom 500 dump/fluid_only.atoms id type x y z vx vy vz fx fy c_den c_phase c_surf c_eta #c_nbond #f_rheo_grad_gradv[*] f_7[1] f_7[2]

thermo             500
thermo_style       custom step time ke press
thermo_modify      norm no lost ignore

variable           n_steps equal 153000+round(20000/0.1)
Reading data file ...
  1 reading atoms ...
  update every 1 steps, delay 10 steps, check yes
Step Time KinEng Press
0            0            0            0
Averages over the last 500 of 999 rows, steps 250500 to 500000:
KinEng Press
0.200078 1.92202e-06
Loop time of 207650 on 16 procs for 500000 steps with 157896 atoms

#delete everythig above the layer and the build plate
# region             clear_nozzle block EDGE 19 EDGE EDGE EDGE EDGE units box
# group              clear_nozzle region clear_nozzle
# delete_atoms       group clear_nozzle
# write_data         ../../final_data/layer_1.extrusion_240_1_1e-2_0p1.data nofix
