LAMMPS (29 Oct 2020)
#################################################################################
# RHEO demo to create a melting beam
#
#      Using the previously created data file, the input script creates a
#      rectangular pillar and heats one side (surface particles with a given
#      normal vector). Solid particles melt and flow, potentially with oxidation
#      if you uncomment the react pair style and maybe tweak surface (works poorly)
#
#################################################################################

#################################
###  General LAMMPS settings  ###
#################################

atom_style         rheo
dimension          3
boundary           m m m
units              lj
comm_modify        vel yes

#################################
###   Loading data files      ###
#################################

read_data          data_equilibrated
Reading data file ...
  orthogonal box = (0.0000000 0.0000000 0.0000000) to (31.748021 31.748021 31.748021)
  reading atoms ...
  32000 atoms
  reading velocities ...
  32000 velocities

region             box1 block EDGE EDGE EDGE EDGE EDGE 2.0
region             box2 block $(lx/4) $(3*lx/4) $(ly/4) $(3*ly/4) 2.0 EDGE
region             box2 block 7.9384748306707635379 $(3*lx/4) $(ly/4) $(3*ly/4) 2.0 EDGE
region             box2 block 7.9384748306707635379 23.815424492012290614 $(ly/4) $(3*ly/4) 2.0 EDGE
region             box2 block 7.9384748306707635379 23.815424492012290614 7.9375753393236960775 $(3*ly/4) 2.0 EDGE
region             box2 block 7.9384748306707635379 23.815424492012290614 7.9375753393236960775 23.812726017971087344 2.0 EDGE
region             box12 union 2 box1 box2

group              interior region box12
9495 atoms in group interior
group              exterior subtract all interior
22505 atoms in group exterior

delete_atoms       group exterior
Deleted 22505 atoms, new total = 9495

group              base region box1
2007 atoms in group base
group              beam region box2
7488 atoms in group beam
velocity           all set 0.0 0.0 0.0

#################################
###  Setting atom properties  ###
#################################

variable	       rho0 equal 1.0
variable           n equal 1.0
variable           mp equal 1/1
mass               1 1

variable           h equal 3.0
variable           cs equal 1.0
variable           zeta equal 1.0

variable           eta equal 0.1
variable           D equal 0.01
variable	       kappa equal 0.01*1/1

set                group all rho 1
Setting atom values ...
  9495 settings made for rho
set                group all temp 0.0
Setting atom values ...
  9495 settings made for temp
set                group base phase 5 #set it solid, no need for bonds
Setting atom values ...
  2007 settings made for phase
set                group beam phase 6 #set it freezing so bonds form
Setting atom values ...
  7488 settings made for phase

#################################
###   Setting interactions    ###
#################################

pair_style         hybrid/overlay rheo 3 artificial/visc 1 rho/damp 0.5 rheo/freeze rheo/react
pair_coeff         * * rheo 1 1
pair_coeff         * * rheo/freeze 3 2.0 1.0 1.0 0.05 1.0
                                  # cut cutb k  sig eps  gamma

pair_coeff         * * rheo/react 3 1.5 0.1 0.03 1.0 1.0 1.0 0.75 1.0

# The oxidation currently does not really work, fix rheo surface
# detects surfaces inside the melting fluid. I think this either
# has to do with either a) gravity being too strong or b) the
# erroneous damping term which drives fluid particles away from
# solids. Need to revisit after that damping term is fixed.

#################################
###   Setting fixes           ###
#################################

fix               1 all rheo 3 Quintic 5 thermal shift
fix               2 all rheo/viscosity  aluminum 0.1 10.0 10.0 1.0 0.25

# This is a more realistic thermal based viscosity
# parameters are eta, a, b, T0, Tc
# where visc = eta*exp(-a/(q+exp(b*(T0-T)))) if T > Tc (molten)
# and        = eta*exp(-a/(q+exp(b*(T0-Tc)))) if T < Tc (solid)

fix               3 all rheo/surface 3 2.5 20

compute            surf all property/atom surface
variable          surface atom (f_3[1]>0.5)&&(c_surf==2) #changed this to excclude splash
group             surface dynamic beam var surface #if var surface==0.0, assign to surface group
dynamic group surface defined
# Surface variable is a per atom integer variable//0-bulk 1-surf vicinity  2-surface 3-splash
# here it grabs particles with a surface normal pointing in the x direction
# e.g. heats one side
# Note this isn't perfect since particles inside the bulk can be identified atom_style
# surface particles - need to fix

fix               5 base setforce 0.0 0.0 0.0 #make the base stationary
fix               6 all rheo/thermal conductivity constant 0.01 cv constant 1.0 Tfreeze constant 0.25
# Rheo thermal evolves temperature, here use constant thermal properties
# but could have them depend on T or particle type, for instance
# If T < Tfreeze, the phase will turn to freezing (bonds will form) which
# will then automatically swap to solid on the next timestep

fix               8 beam addforce 0.0 0.0 -5e-5 #add approximate gravitational (z-direction) force
fix               9 all balance 1000 1.05 shift x 10 1.05 #
#fix balance divides atoms among subprocessors by computation effort required rather than the default division by spatial position
#this is good practice for simulation where different types (i.e. phases) require different computational effort

timestep 0.1
#Look into computational timestep criterion to be more rigorous about timestep choice

#################################
###   Output data & run       ###
#################################

thermo             100
thermo_style       custom step dt time ke pe press

compute            phase all property/atom phase
compute            rho all property/atom rho
compute            temp all property/atom temp
compute            visc all property/atom viscosity
compute            nbond all property/atom i_rheo_freeze_nbond
dump               mydump all custom 500 melt_block.dump id type x y z vx vy vz c_phase c_temp c_surf c_nbond c_visc c_rho f_3[1]

run      4000  #relax under "gravity"
  update every 1 steps, delay 10 steps, check yes
Step Dt Time KinEng PotEng Press
0          0.1            0            0 -0.00016089011 0.00040361352
Averages over the last 21 of 41 rows, steps 2000 to 4000:
Dt KinEng PotEng Press
0.1 2.51141e-10 -0.000160938 0.00047022
Loop time of 73.6509 on 64 procs for 4000 steps with 9495 atoms

fix               7 surface rheo/add/heat 0.005

run      500000
Step Dt Time KinEng PotEng Press
4000          0.1          400 5.8528441e-11 -0.00016093813 0.00047060397
Averages over the last 259 of 517 rows, steps 29800 to 55600:
Dt KinEng PotEng Press
0.1 1.24119e-06 -0.000116735 0.000350263
